%NprocShared = 1
%NprocLinda  = 1
%Mem = 250mw
%Chk = cs-hg-sc_060.631+gss_opt.chk
#b3pw91/gen pseudo=read nosymm opt=modredun freq test

disulfide dihedral scan

0 1 
6    -0.620374  -0.235183   0.173281
16    0.804102  -0.720115  -0.875124
80    2.611775   0.502517   0.037001
16    4.434329   1.789243   0.822607
6     4.582768   1.257793   2.571604
1    -1.473085  -0.805502  -0.204486
1    -0.467795  -0.499603   1.221582
1    -0.852410   0.828091   0.085066
1     5.417519   1.830209   2.984661
1     3.686578   1.491902   3.149675
1     4.818321   0.195260   2.659532

D 1 2 4 5 F

Hg 0 
SDD
****
S 0 
6-31+G**
****
C 0 
6-31+G**
****
H 0 
6-31+G**
****

Hg 0 
SDD

