%NprocShared = 1
%NprocLinda  = 1
%Mem = 250mw
%Chk = cs-hg-sc_160.631+gss_opt.chk
#b3pw91/gen pseudo=read nosymm opt=modredun freq test

disulfide dihedral scan

0 1 
6    -0.620374  -0.235183   0.173281
16    0.804102  -0.720115  -0.875124
80    2.664895   0.489664  -0.057588
16    4.434329   1.789243   0.822607
6     5.924965   0.898074   0.233297
1    -1.473085  -0.805502  -0.204486
1    -0.467795  -0.499603   1.221582
1    -0.852410   0.828091   0.085066
1     6.778328   1.462294   0.618670
1     5.978920  -0.118432   0.628180
1     5.989024   0.880476  -0.856557

D 1 2 4 5 F

Hg 0 
SDD
****
S 0 
6-31+G**
****
C 0 
6-31+G**
****
H 0 
6-31+G**
****

Hg 0 
SDD

