%NprocShared = 1
%NprocLinda  = 1
%Mem = 250mw
%Chk = cs-hg-sc_150.631+gss_opt.chk
#b3pw91/gen pseudo=read nosymm opt=modredun freq test

disulfide dihedral scan

0 1 
6    -0.620374  -0.235183   0.173281
16    0.804102  -0.720115  -0.875124
80    2.664289   0.483322  -0.046916
16    4.434329   1.789243   0.822607
6     5.906428   0.743817   0.500937
1    -1.473085  -0.805502  -0.204486
1    -0.467795  -0.499603   1.221582
1    -0.852410   0.828091   0.085066
1     6.759239   1.306448   0.889839
1     5.855640  -0.210838   1.028370
1     6.064753   0.574360  -0.566027

D 1 2 4 5 F

Hg 0 
SDD
****
S 0 
6-31+G**
****
C 0 
6-31+G**
****
H 0 
6-31+G**
****

Hg 0 
SDD

