%NprocShared = 1
%NprocLinda  = 1
%Mem = 250mw
%Chk = cs-hg-sc_000.631+gss_opt.chk
#b3pw91/gen pseudo=read nosymm opt=modredun freq test

disulfide dihedral scan

0 1 
6    -0.620374  -0.235183   0.173281
16    0.804102  -0.720115  -0.875124
80    2.576454   0.562913   0.023258
16    4.434329   1.789243   0.822607
6     3.716003   2.762290   2.201249
1    -1.473085  -0.805502  -0.204486
1    -0.467795  -0.499603   1.221582
1    -0.852410   0.828091   0.085066
1     4.541092   3.353592   2.607049
1     2.938265   3.447834   1.858782
1     3.328056   2.122978   2.996844

D 1 2 4 5 F

Hg 0 
SDD
****
S 0 
6-31+G**
****
C 0 
6-31+G**
****
H 0 
6-31+G**
****

Hg 0 
SDD

