%NprocShared = 1
%NprocLinda  = 1
%Mem = 250mw
%Chk = cssc_110.631+gss_opt.chk
#b3pw91/gen nosymm opt=modredun freq test

disulfide dihedral scan

0 1 
16    2.811316  -0.792625   0.830030
6     1.490902   0.083541  -0.070051
1     1.046921  -0.652792  -0.747440
1     1.888201   0.912313  -0.660359
1     0.724810   0.444557   0.619174
16    3.501371   0.623530   2.165502
6     2.933539  -0.005130   3.779213
1     3.218846   0.752301   4.516137
1     3.419047  -0.949130   4.037020
1     1.848187  -0.124207   3.789053

D 2 1 6 7 F

S 0 
6-31+G**
****
H 0 
6-31+G**
****
C 0 
6-31+G**
****


