%NprocShared = 1
%NprocLinda  = 1
%Mem = 250mw
%Chk = cssc_090.631+gss_opt.chk
#b3pw91/gen nosymm opt=modredun freq test

disulfide dihedral scan

0 1 
16    2.811316  -0.792625   0.830030
6     1.490902   0.083541  -0.070051
1     1.046921  -0.652792  -0.747440
1     1.888201   0.912313  -0.660359
1     0.724810   0.444557   0.619174
16    3.501371   0.623530   2.165502
6     2.458802   0.360261   3.637049
1     2.743581   1.138256   4.352440
1     2.639370  -0.617890   4.088637
1     1.401436   0.471423   3.388279

D 2 1 6 7 F

S 0 
6-31+G**
****
H 0 
6-31+G**
****
C 0 
6-31+G**
****


