%NprocShared = 1
%NprocLinda  = 1
%Mem = 250mw
%Chk = cssc_170.631+gss_opt.chk
#b3pw91/gen nosymm opt=modredun freq test

disulfide dihedral scan

0 1 
16    2.811316  -0.792625   0.830030
6     1.490902   0.083541  -0.070051
1     1.046921  -0.652792  -0.747440
1     1.888201   0.912313  -0.660359
1     0.724810   0.444557   0.619174
16    3.501371   0.623530   2.165502
6     4.598426  -0.330824   3.264315
1     4.936836   0.368567   4.035348
1     5.469739  -0.714693   2.728801
1     4.055113  -1.151171   3.737715

D 2 1 6 7 F

S 0 
6-31+G**
****
H 0 
6-31+G**
****
C 0 
6-31+G**
****


