%NprocShared = 1
%NprocLinda  = 1
%Mem = 250mw
%Chk = cssc_050.631+gss_opt.chk
#b3pw91/gen nosymm opt=modredun freq test

disulfide dihedral scan

0 1 
16    2.811316  -0.792625   0.830030
6     1.490902   0.083541  -0.070051
1     1.046921  -0.652792  -0.747440
1     1.888201   0.912313  -0.660359
1     0.724810   0.444557   0.619174
16    3.501371   0.623530   2.165502
6     1.977718   1.239068   2.953731
1     2.289232   2.045388   3.625271
1     1.485532   0.460619   3.541172
1     1.289349   1.640037   2.206979

D 2 1 6 7 F

S 0 
6-31+G**
****
H 0 
6-31+G**
****
C 0 
6-31+G**
****


