%NprocShared = 1
%NprocLinda  = 1
%Mem = 250mw
%Chk = cystine_110.631+gss_opt.chk
#b3pw91/gen nosymm opt=modredun freq test

disulfide dihedral scan

0 1 
7    -0.497453   1.543178  -1.178341
1    -0.005900   0.823927  -1.699658
1    -0.783024   2.257390  -1.839142
6     0.336833   2.097854  -0.134867
1    -0.257477   2.834263   0.423259
6     1.588855   2.879289  -0.557310
8     2.267527   3.527636   0.208243
8     1.853208   2.792939  -1.876750
1     2.660601   3.308655  -2.034180
6     0.719440   1.026822   0.897115
1     1.263971   1.483096   1.726202
1    -0.198802   0.560592   1.260525
16    1.780592  -0.272671   0.135430
7     0.525859  -4.755085  -0.957812
1     0.418054  -5.554845  -0.339936
1     0.855326  -5.093055  -1.856162
6     1.447535  -3.781249  -0.383787
1     1.687395  -3.040690  -1.152281
6     2.740376  -4.444415   0.088850
8     2.798834  -5.253278   0.991339
8     3.811139  -4.089644  -0.646051
1     4.575953  -4.571849  -0.290741
6     0.757871  -3.082591   0.787158
1    -0.205922  -2.691511   0.451508
1     0.579772  -3.798909   1.598497
16    1.749561  -1.759826   1.568286

D 10 13 26 23 F

C 0 
6-31+G**
****
S 0 
6-31+G**
****
O 0 
6-31+G**
****
N 0 
6-31+G**
****
H 0 
6-31+G**
****


