%NprocShared = 1
%NprocLinda  = 1
%Mem = 250mw
%Chk = cystine_050.631+gss_opt.chk
#b3pw91/gen nosymm opt=modredun freq test

disulfide dihedral scan

0 1 
7    -0.497453   1.543178  -1.178341
1    -0.005900   0.823927  -1.699658
1    -0.783024   2.257390  -1.839142
6     0.336833   2.097854  -0.134867
1    -0.257477   2.834263   0.423259
6     1.588855   2.879289  -0.557310
8     2.267527   3.527636   0.208243
8     1.853208   2.792939  -1.876750
1     2.660601   3.308655  -2.034180
6     0.719440   1.026822   0.897115
1     1.263971   1.483096   1.726202
1    -0.198802   0.560592   1.260525
16    1.780592  -0.272671   0.135430
7    -2.240285  -2.641523   1.175940
1    -2.396956  -3.346909   1.890708
1    -2.835911  -2.858217   0.383426
6    -0.834022  -2.601765   0.790983
1    -0.740335  -1.980373  -0.104359
6    -0.297217  -3.999228   0.485123
8    -0.200260  -4.885311   1.308300
8    -0.001085  -4.174291  -0.816467
1     0.308798  -5.089141  -0.920049
6    -0.031312  -1.968394   1.926487
1    -0.483791  -1.009423   2.191323
1    -0.052923  -2.619413   2.808988
16    1.749561  -1.759826   1.568286

D 10 13 26 23 F

C 0 
6-31+G**
****
S 0 
6-31+G**
****
O 0 
6-31+G**
****
N 0 
6-31+G**
****
H 0 
6-31+G**
****


