%NprocShared = 1
%NprocLinda  = 1
%Mem = 250mw
%Chk = cystine_140.631+gss_opt.chk
#b3pw91/gen nosymm opt=modredun freq test

disulfide dihedral scan

0 1 
7    -0.497453   1.543178  -1.178341
1    -0.005900   0.823927  -1.699658
1    -0.783024   2.257390  -1.839142
6     0.336833   2.097854  -0.134867
1    -0.257477   2.834263   0.423259
6     1.588855   2.879289  -0.557310
8     2.267527   3.527636   0.208243
8     1.853208   2.792939  -1.876750
1     2.660601   3.308655  -2.034180
6     0.719440   1.026822   0.897115
1     1.263971   1.483096   1.726202
1    -0.198802   0.560592   1.260525
16    1.780592  -0.272671   0.135430
7     2.637406  -4.838020  -0.998160
1     2.596989  -5.660447  -0.402351
1     3.364171  -4.986049  -1.690768
6     2.891772  -3.640067  -0.205978
1     3.121442  -2.818074  -0.890172
6     4.069701  -3.838197   0.746830
8     4.073555  -4.628136   1.667778
8     5.140102  -3.089672   0.420596
1     5.840624  -3.295472   1.061393
6     1.629942  -3.296281   0.584256
1     0.781464  -3.246205  -0.102823
1     1.429901  -4.076629   1.328663
16    1.749561  -1.759826   1.568286

D 10 13 26 23 F

C 0 
6-31+G**
****
S 0 
6-31+G**
****
O 0 
6-31+G**
****
N 0 
6-31+G**
****
H 0 
6-31+G**
****


