%NprocShared = 1
%NprocLinda  = 1
%Mem = 250mw
%Chk = cystine_020.631+gss_opt.chk
#b3pw91/gen nosymm opt=modredun freq test

disulfide dihedral scan

0 1 
7    -0.497453   1.543178  -1.178341
1    -0.005900   0.823927  -1.699658
1    -0.783024   2.257390  -1.839142
6     0.336833   2.097854  -0.134867
1    -0.257477   2.834263   0.423259
6     1.588855   2.879289  -0.557310
8     2.267527   3.527636   0.208243
8     1.853208   2.792939  -1.876750
1     2.660601   3.308655  -2.034180
6     0.719440   1.026822   0.897115
1     1.263971   1.483096   1.726202
1    -0.198802   0.560592   1.260525
16    1.780592  -0.272671   0.135430
7    -2.153695  -1.177223   2.697605
1    -2.278751  -1.836190   3.461236
1    -3.029239  -1.115197   2.188312
6    -1.060001  -1.597140   1.828785
1    -1.083508  -0.981551   0.924882
6    -1.191565  -3.067111   1.433195
8    -1.121029  -3.990798   2.216771
8    -1.462865  -3.236285   0.125428
1    -1.550305  -4.191448  -0.028600
6     0.263037  -1.366435   2.557632
1     0.300180  -0.332743   2.910624
1     0.334042  -2.033682   3.425297
16    1.749561  -1.759826   1.568286

D 10 13 26 23 F

C 0 
6-31+G**
****
S 0 
6-31+G**
****
O 0 
6-31+G**
****
N 0 
6-31+G**
****
H 0 
6-31+G**
****


