%NprocShared = 1
%NprocLinda  = 1
%Mem = 250mw
%Chk = cystine_080.631+gss_opt.chk
#b3pw91/gen nosymm opt=modredun freq test

disulfide dihedral scan

0 1 
7    -0.497453   1.543178  -1.178341
1    -0.005900   0.823927  -1.699658
1    -0.783024   2.257390  -1.839142
6     0.336833   2.097854  -0.134867
1    -0.257477   2.834263   0.423259
6     1.588855   2.879289  -0.557310
8     2.267527   3.527636   0.208243
8     1.853208   2.792939  -1.876750
1     2.660601   3.308655  -2.034180
6     0.719440   1.026822   0.897115
1     1.263971   1.483096   1.726202
1    -0.198802   0.560592   1.260525
16    1.780592  -0.272671   0.135430
7    -1.259500  -3.951111  -0.162036
1    -1.409857  -4.708031   0.499382
1    -1.414061  -4.314214  -1.096954
6     0.083799  -3.401204  -0.018874
1     0.273886  -2.734070  -0.864653
6     1.141974  -4.503357  -0.006941
8     1.234509  -5.347411   0.859761
8     1.929335  -4.486642  -1.098848
1     2.551164  -5.228377  -1.016000
6     0.149810  -2.596551   1.278448
1    -0.669037  -1.872792   1.291224
1     0.037021  -3.265531   2.140333
16    1.749561  -1.759826   1.568286

D 10 13 26 23 F

C 0 
6-31+G**
****
S 0 
6-31+G**
****
O 0 
6-31+G**
****
N 0 
6-31+G**
****
H 0 
6-31+G**
****


