%NprocShared = 1
%NprocLinda  = 1
%Mem = 250mw
%Chk = cystine_000.631+gss_opt.chk
#b3pw91/gen nosymm opt=modredun freq test

disulfide dihedral scan

0 1 
7    -0.497453   1.543178  -1.178341
1    -0.005900   0.823927  -1.699658
1    -0.783024   2.257390  -1.839142
6     0.336833   2.097854  -0.134867
1    -0.257477   2.834263   0.423259
6     1.588855   2.879289  -0.557310
8     2.267527   3.527636   0.208243
8     1.853208   2.792939  -1.876750
1     2.660601   3.308655  -2.034180
6     0.719440   1.026822   0.897115
1     1.263971   1.483096   1.726202
1    -0.198802   0.560592   1.260525
16    1.780592  -0.272671   0.135430
7    -1.502323  -0.310350   3.611436
1    -1.589049  -0.947518   4.398522
1    -2.435425  -0.024987   3.332696
6    -0.787904  -0.946232   2.510252
1    -0.885563  -0.311081   1.625047
6    -1.358462  -2.328433   2.196251
8    -1.319474  -3.269620   2.960981
8    -1.974900  -2.382380   1.000604
1    -2.322169  -3.283682   0.896850
6     0.689291  -1.060995   2.883878
1     1.056853  -0.078559   3.190827
1     0.810391  -1.756266   3.723542
16    1.749561  -1.759826   1.568286

D 10 13 26 23 F

C 0 
6-31+G**
****
S 0 
6-31+G**
****
O 0 
6-31+G**
****
N 0 
6-31+G**
****
H 0 
6-31+G**
****


