%NprocShared = 1
%NprocLinda  = 1
%Mem = 250mw
%Chk = cystine_120.631+gss_opt.chk
#b3pw91/gen nosymm opt=modredun freq test

disulfide dihedral scan

0 1 
7    -0.497453   1.543178  -1.178341
1    -0.005900   0.823927  -1.699658
1    -0.783024   2.257390  -1.839142
6     0.336833   2.097854  -0.134867
1    -0.257477   2.834263   0.423259
6     1.588855   2.879289  -0.557310
8     2.267527   3.527636   0.208243
8     1.853208   2.792939  -1.876750
1     2.660601   3.308655  -2.034180
6     0.719440   1.026822   0.897115
1     1.263971   1.483096   1.726202
1    -0.198802   0.560592   1.260525
16    1.780592  -0.272671   0.135430
7     1.221044  -4.868214  -1.060172
1     1.133738  -5.678205  -0.452471
1     1.698635  -5.159492  -1.906853
6     1.939698  -3.793175  -0.385506
1     2.183032  -3.025271  -1.125543
6     3.233515  -4.297882   0.251616
8     3.275409  -5.098270   1.162542
8     4.337338  -3.812875  -0.347398
1     5.104065  -4.201059   0.105537
6     1.029862  -3.188656   0.682963
1     0.075680  -2.915032   0.225615
1     0.839071  -3.925260   1.472974
16    1.749561  -1.759826   1.568286

D 10 13 26 23 F

C 0 
6-31+G**
****
S 0 
6-31+G**
****
O 0 
6-31+G**
****
N 0 
6-31+G**
****
H 0 
6-31+G**
****


