%NprocShared = 1
%NprocLinda  = 1
%Mem = 250mw
%Chk = cystine_160.631+gss_opt.chk
#b3pw91/gen nosymm opt=modredun freq test

disulfide dihedral scan

0 1 
7    -0.497453   1.543178  -1.178341
1    -0.005900   0.823927  -1.699658
1    -0.783024   2.257390  -1.839142
6     0.336833   2.097854  -0.134867
1    -0.257477   2.834263   0.423259
6     1.588855   2.879289  -0.557310
8     2.267527   3.527636   0.208243
8     1.853208   2.792939  -1.876750
1     2.660601   3.308655  -2.034180
6     0.719440   1.026822   0.897115
1     1.263971   1.483096   1.726202
1    -0.198802   0.560592   1.260525
16    1.780592  -0.272671   0.135430
7     3.945915  -4.473255  -0.591234
1     3.955438  -5.296303   0.005012
1     4.834894  -4.426758  -1.078431
6     3.705886  -3.269363   0.196406
1     3.896131  -2.399498  -0.438956
6     4.624428  -3.205280   1.415746
8     4.587589  -3.994374   2.336689
8     5.533716  -2.215657   1.336257
1     6.082486  -2.264816   2.136345
6     2.243679  -3.255536   0.639837
1     1.604149  -3.391626  -0.235938
1     2.056557  -4.079420   1.339338
16    1.749561  -1.759826   1.568286

D 10 13 26 23 F

C 0 
6-31+G**
****
S 0 
6-31+G**
****
O 0 
6-31+G**
****
N 0 
6-31+G**
****
H 0 
6-31+G**
****


