%NprocShared = 1
%NprocLinda  = 1
%Mem = 250mw
%Chk = cystine_170.631+gss_opt.chk
#b3pw91/gen nosymm opt=modredun freq test

disulfide dihedral scan

0 1 
7    -0.497453   1.543178  -1.178341
1    -0.005900   0.823927  -1.699658
1    -0.783024   2.257390  -1.839142
6     0.336833   2.097854  -0.134867
1    -0.257477   2.834263   0.423259
6     1.588855   2.879289  -0.557310
8     2.267527   3.527636   0.208243
8     1.853208   2.792939  -1.876750
1     2.660601   3.308655  -2.034180
6     0.719440   1.026822   0.897115
1     1.263971   1.483096   1.726202
1    -0.198802   0.560592   1.260525
16    1.780592  -0.272671   0.135430
7     4.509355  -4.177694  -0.272270
1     4.543104  -4.996542   0.328860
1     5.440231  -4.021869  -0.645089
6     4.029528  -3.015487   0.466911
1     4.191777  -2.125872  -0.148558
6     4.773755  -2.847138   1.790693
8     4.717112  -3.639490   2.707826
8     5.560127  -1.754668   1.815288
1     6.006310  -1.741250   2.678101
6     2.532352  -3.180362   0.724111
1     2.028550  -3.388245  -0.223238
1     2.359617  -4.024277   1.403135
16    1.749561  -1.759826   1.568286

D 10 13 26 23 F

C 0 
6-31+G**
****
S 0 
6-31+G**
****
O 0 
6-31+G**
****
N 0 
6-31+G**
****
H 0 
6-31+G**
****


