%NprocShared = 1
%NprocLinda  = 1
%Mem = 250mw
%Chk = cystine_070.631+gss_opt.chk
#b3pw91/gen nosymm opt=modredun freq test

disulfide dihedral scan

0 1 
7    -0.497453   1.543178  -1.178341
1    -0.005900   0.823927  -1.699658
1    -0.783024   2.257390  -1.839142
6     0.336833   2.097854  -0.134867
1    -0.257477   2.834263   0.423259
6     1.588855   2.879289  -0.557310
8     2.267527   3.527636   0.208243
8     1.853208   2.792939  -1.876750
1     2.660601   3.308655  -2.034180
6     0.719440   1.026822   0.897115
1     1.263971   1.483096   1.726202
1    -0.198802   0.560592   1.260525
16    1.780592  -0.272671   0.135430
7    -1.694218  -3.555428   0.239228
1    -1.851005  -4.295467   0.918027
1    -2.006984  -3.887745  -0.667165
6    -0.287106  -3.172610   0.210350
1    -0.125046  -2.524600  -0.655884
6     0.623528  -4.394126   0.095201
8     0.721067  -5.251977   0.947693
8     1.264592  -4.461122  -1.086757
1     1.797844  -5.273085  -1.078717
6     0.036976  -2.395014   1.485178
1    -0.680528  -1.578168   1.596763
1    -0.047172  -3.054322   2.357723
16    1.749561  -1.759826   1.568286

D 10 13 26 23 F

C 0 
6-31+G**
****
S 0 
6-31+G**
****
O 0 
6-31+G**
****
N 0 
6-31+G**
****
H 0 
6-31+G**
****


